
**** 04/13/18 11:26:23 ****** PSpice Lite (October 2012) ****** ID# 10813 ****

 ** Profile: "SCHEMATIC1-bias"  [ D:\work\work_orcad\bead_analysis-pspicefiles\schematic1\bias.sim ] 


 ****     CIRCUIT DESCRIPTION


******************************************************************************




** Creating circuit file "bias.cir" 
** WARNING: THIS AUTOMATICALLY GENERATED FILE MAY BE OVERWRITTEN BY SUBSEQUENT SIMULATIONS

*Libraries: 
* Profile Libraries :
* Local Libraries :
* From [PSPICE NETLIST] section of C:\Users\KCCI\AppData\Roaming\SPB_16.6\cdssetup\OrCAD_PSpice/16.6.0/PSpice.ini file:
.lib "nomd.lib" 

*Analysis directives: 
.AC DEC 101 1 1t
.OPTIONS ADVCONV
.PROBE64 V(alias(*)) I(alias(*)) W(alias(*)) D(alias(*)) NOISE(alias(*)) 
.INC "..\SCHEMATIC1.net" 



**** INCLUDING SCHEMATIC1.net ****
* source BEAD_ANALYSIS
L_L1         AC N14388  0.17u  
R_R1         AC N14388  30 TC=0,0 
R_R2         N14388 0  4m TC=0,0 
C_C1         AC N14388  0.24p  TC=0,0 
R_R4         N14759 0  0.69 TC=0,0 
R_R3         AC N14759  420 TC=0,0 
L_L2         AC N14759  0.06u  
C_C2         AC N14759  0.24p  TC=0,0 
V_V1         AC 0 DC 0Vdc AC 1Vac 

**** RESUMING bias.cir ****
.END

**** 04/13/18 11:26:23 ****** PSpice Lite (October 2012) ****** ID# 10813 ****

 ** Profile: "SCHEMATIC1-bias"  [ D:\work\work_orcad\bead_analysis-pspicefiles\schematic1\bias.sim ] 


 ****     SMALL SIGNAL BIAS SOLUTION       TEMPERATURE =   27.000 DEG C


******************************************************************************



 NODE   VOLTAGE     NODE   VOLTAGE     NODE   VOLTAGE     NODE   VOLTAGE


(   AC)    0.0000  (N14388)    0.0000 (N14759)    0.0000 




    VOLTAGE SOURCE CURRENTS
    NAME         CURRENT

    V_V1         0.000E+00

    TOTAL POWER DISSIPATION   0.00E+00  WATTS



          JOB CONCLUDED

**** 04/13/18 11:26:23 ****** PSpice Lite (October 2012) ****** ID# 10813 ****

 ** Profile: "SCHEMATIC1-bias"  [ D:\work\work_orcad\bead_analysis-pspicefiles\schematic1\bias.sim ] 


 ****     JOB STATISTICS SUMMARY


******************************************************************************



  Total job time (using Solver 1)   =         .02
