
**** 04/04/18 15:55:10 ****** PSpice Lite (October 2012) ****** ID# 10813 ****

 ** Profile: "SCHEMATIC1-bias"  [ D:\work\work_orcad\lpf_180404-pspicefiles\schematic1\bias.sim ] 


 ****     CIRCUIT DESCRIPTION


******************************************************************************




** Creating circuit file "bias.cir" 
** WARNING: THIS AUTOMATICALLY GENERATED FILE MAY BE OVERWRITTEN BY SUBSEQUENT SIMULATIONS

*Libraries: 
* Profile Libraries :
* Local Libraries :
* From [PSPICE NETLIST] section of C:\Users\KCCI\AppData\Roaming\SPB_16.6\cdssetup\OrCAD_PSpice/16.6.0/PSpice.ini file:
.lib "nomd.lib" 

*Analysis directives: 
.TRAN  0 30m 0 30u 
.OPTIONS ADVCONV
.PROBE64 V(alias(*)) I(alias(*)) W(alias(*)) D(alias(*)) NOISE(alias(*)) 
.INC "..\SCHEMATIC1.net" 



**** INCLUDING SCHEMATIC1.net ****
* source LPF_180404
R_R1         PUL N14437  1k TC=0,0 
V_V1         AC 0 DC 0Vdc AC 1Vac 
C_C1         0 N14437  1u  TC=0,0 
V_V2         PUL 0  
+PULSE 0 1 0 1u 1u 15m 30m
C_C2         0 N14437  1n  TC=0,0 
L_L1         PUL N14917  1H  
R_R2         0 N14917  1k TC=0,0 
C_C4         0 N15315  1u  TC=0,0 
L_L2         N15438 N15315  1u  
C_C5         0 N15786  1u  TC=0,0 
L_L3         N16781 N15786  1u  
R_R3         AC N15438  10m TC=0,0 
C_C6         0 N16439  1u  TC=0,0 
L_L4         N16479 N16439  1u  
R_R4         AC N16479  100m TC=0,0 
R_R5         PUL N16781  1 TC=0,0 
L_L5         N17019 N16941  1u  
R_R6         PUL N17019  20 TC=0,0 
C_C7         0 N16941  1u  TC=0,0 

**** RESUMING bias.cir ****
.END

**** 04/04/18 15:55:10 ****** PSpice Lite (October 2012) ****** ID# 10813 ****

 ** Profile: "SCHEMATIC1-bias"  [ D:\work\work_orcad\lpf_180404-pspicefiles\schematic1\bias.sim ] 


 ****     INITIAL TRANSIENT SOLUTION       TEMPERATURE =   27.000 DEG C


******************************************************************************



 NODE   VOLTAGE     NODE   VOLTAGE     NODE   VOLTAGE     NODE   VOLTAGE


(   AC)    0.0000  (  PUL)    0.0000  (N14437)    0.0000 (N14917)    0.0000     

(N15315)    0.0000 (N15438)    0.0000 (N15786)    0.0000 (N16439)    0.0000     

(N16479)    0.0000 (N16781)    0.0000 (N16941)    0.0000 (N17019)    0.0000 




    VOLTAGE SOURCE CURRENTS
    NAME         CURRENT

    V_V1         0.000E+00
    V_V2         0.000E+00

    TOTAL POWER DISSIPATION   0.00E+00  WATTS



          JOB CONCLUDED

**** 04/04/18 15:55:10 ****** PSpice Lite (October 2012) ****** ID# 10813 ****

 ** Profile: "SCHEMATIC1-bias"  [ D:\work\work_orcad\lpf_180404-pspicefiles\schematic1\bias.sim ] 


 ****     JOB STATISTICS SUMMARY


******************************************************************************



  Total job time (using Solver 1)   =         .02
